<?xml version="1.0" encoding="UTF-8"?>
<!-- generated on 25/02/2018 4:44:42 PM by Netedit Version 0.32.0

<?xml version="1.0" encoding="UTF-8"?><configuration 
xmlns:xsi="http://www.w3.org/2001/XMLSchema-instance" xsi:noNamespaceSchemaLocation="http://sumo.dlr.de/xsd/netconvertConfiguration.xsd"><input><sumo-net-file value="D:\Dropbox\Work\sumo\cga#vf%20-%20early%20convergenceVF+length%20fix\network\osm.net.xml"/></input><output><output-file value="D:\Dropbox\Work\sumo\cga#vf%20-%20early%20convergenceVF+length%20fix\network\osm.net.xml"/><output.street-names value="true"/></output><processing><no-internal-links value="true"/><no-turnarounds value="true"/><offset.disable-normalization value="true"/><lefthand value="false"/><junctions.corner-detail value="5"/><rectangular-lane-cut value="false"/><walkingareas value="false"/></processing></configuration>
-->
<net version="0.27" junctionCornerDetail="5" 
    xmlns:xsi="http://www.w3.org/2001/XMLSchema-instance" xsi:noNamespaceSchemaLocation="http://sumo.dlr.de/xsd/net_file.xsd">
    <location netOffset="-391910.16,-4986621.17" convBoundary="1152.05,1075.82,2014.39,2598.05" origBoundary="7.627421,45.024898,7.662048,45.051442" projParameter="+proj=utm +zone=32 +ellps=WGS84 +datum=WGS84 +units=m +no_defs"/>
    <type id="frontage" priority="4" speed="13.89"/>
    <type id="main" priority="5" speed="13.89"/>
    <type id="secondary" priority="3" speed="13.89"/>
    <edge id="-39817425#0" from="cga#vsm" to="cga#vsm1" name="Via San Marino" priority="4" type="frontage" spreadType="center" length="32.10" shape="1379.21,1420.99 1361.19,1432.11">
        <lane id="-39817425#0_0" index="0" disallow="tram rail_urban rail rail_electric ship" speed="13.89" length="32.10" width="5.00" shape="1370.60,1426.30 1365.57,1429.40"/>
    </edge>
    <edge id="111801779" from="cga#cs2" to="cga#cs6" name="Corso Sebastopoli" priority="4" type="frontage" spreadType="center" length="3.00">
        <lane id="111801779_0" index="0" disallow="tram rail_urban rail rail_electric ship" speed="13.89" length="3.00" width="3.00" shape="1724.24,2054.45 1730.50,2051.14"/>
        <lane id="111801779_1" index="1" disallow="tram rail_urban rail rail_electric ship" speed="13.89" length="3.00" width="3.00" shape="1725.69,2057.19 1731.95,2053.89"/>
    </edge>
    <edge id="31652636" from="cga#cs4" to="cga#cs1" name="Corso Sebastopoli" priority="4" type="frontage" spreadType="center">
        <lane id="31652636_0" index="0" disallow="tram rail_urban rail rail_electric ship" speed="13.89" length="20.98" width="3.00" shape="1744.65,2079.39 1738.76,2082.28"/>
        <lane id="31652636_1" index="1" disallow="tram rail_urban rail rail_electric ship" speed="13.89" length="20.98" width="3.00" shape="1743.29,2076.61 1737.40,2079.49"/>
    </edge>
    <edge id="37278466#0" from="937605186" to="cga#cs3" name="Corso Quattro Novembre" priority="4" type="frontage" spreadType="center">
        <lane id="37278466#0_0" index="0" disallow="tram rail_urban rail rail_electric ship" speed="13.89" length="570.01" width="5.00" shape="1978.17,2598.05 1715.13,2097.54"/>
    </edge>
    <edge id="37278466#4" from="cga#cs3" to="cga#cs5" name="Corso Quattro Novembre" priority="4" type="frontage" spreadType="center">
        <lane id="37278466#4_0" index="0" disallow="tram rail_urban rail rail_electric ship" speed="13.89" length="27.42" width="3.00" shape="1709.52,2090.24 1700.88,2073.98"/>
        <lane id="37278466#4_1" index="1" disallow="tram rail_urban rail rail_electric ship" speed="13.89" length="27.42" width="3.00" shape="1712.26,2088.78 1703.61,2072.52"/>
    </edge>
    <edge id="37278469#0" from="cga#cs5" to="cga#vf1" name="Corso Giovanni Agnelli" priority="4" type="frontage" spreadType="center">
        <lane id="37278469#0_0" index="0" disallow="tram rail_urban rail rail_electric ship" speed="13.89" length="305.16" width="5.00" shape="1697.96,2065.22 1560.23,1808.38"/>
    </edge>
    <edge id="37278469#7" from="cga#vf1" to="cga#vsm1" name="Corso Giovanni Agnelli" priority="4" type="frontage" spreadType="center">
        <lane id="37278469#7_0" index="0" disallow="tram rail_urban rail rail_electric ship" speed="13.89" length="419.09" width="5.00" shape="1551.68,1792.31 1363.10,1435.43"/>
    </edge>
    <edge id="37278469#8" from="cga#vsm1" to="481302872" name="Corso Giovanni Agnelli" priority="4" type="frontage" spreadType="center">
        <lane id="37278469#8_0" index="0" disallow="tram rail_urban rail rail_electric ship" speed="13.89" length="371.99" width="5.00" shape="1354.71,1419.36 1188.77,1099.61"/>
    </edge>
    <edge id="37278470#0" from="cga#cs4" to="1624003178" name="Corso Quattro Novembre" priority="4" type="frontage" spreadType="center">
        <lane id="37278470#0_0" index="0" disallow="tram rail_urban rail rail_electric ship" speed="13.89" length="570.00" width="5.00" shape="1750.17,2079.95 2014.39,2579.95"/>
    </edge>
    <edge id="39817425#3" from="cga#vsm" to="cga#vsm2" name="Via San Marino" priority="4" type="frontage" spreadType="center" length="32.10" shape="1376.18,1416.91 1394.10,1402.82">
        <lane id="39817425#3_0" index="0" disallow="tram rail_urban rail rail_electric ship" speed="13.89" length="32.10" width="5.00" shape="1384.80,1410.13 1389.47,1406.46"/>
    </edge>
    <edge id="39817425#5" from="cga#vsm2" to="vsm+e" name="Via San Marino" priority="3" type="secondary" spreadType="center" length="405.37" shape="1393.67,1402.46 1703.29,1140.76">
        <lane id="39817425#5_0" index="0" disallow="all" speed="13.89" length="405.37" width="2.00" shape="1396.12,1397.70 1701.97,1139.19"/>
        <lane id="39817425#5_1" index="1" disallow="tram rail_urban rail rail_electric ship" speed="13.89" length="405.37" width="4.00" shape="1398.13,1400.07 1703.97,1141.56"/>
    </edge>
    <edge id="81082982#4" from="945016927" to="cga#vsm2" name="Corso Giovanni Agnelli" priority="4" type="frontage" spreadType="center">
        <lane id="81082982#4_0" index="0" disallow="tram rail_urban rail rail_electric ship" speed="13.89" length="372.00" width="5.00" shape="1222.07,1075.82 1392.78,1399.35"/>
    </edge>
    <edge id="81082982#5" from="cga#vsm2" to="cga#vf2" name="Corso Giovanni Agnelli" priority="4" type="frontage" spreadType="center">
        <lane id="81082982#5_0" index="0" disallow="tram rail_urban rail rail_electric ship" speed="13.89" length="424.99" width="5.00" shape="1401.34,1415.58 1589.71,1772.60"/>
    </edge>
    <edge id="81082982#8" from="cga#vf2" to="cga#cs6" name="Corso Giovanni Agnelli" priority="4" type="frontage" spreadType="center">
        <lane id="81082982#8_0" index="0" disallow="tram rail_urban rail rail_electric ship" speed="13.89" length="304.44" width="5.00" shape="1598.22,1788.79 1733.20,2046.34"/>
    </edge>
    <edge id="81082982#9" from="cga#cs6" to="cga#cs4" name="Corso Giovanni Agnelli" priority="4" type="frontage" spreadType="center">
        <lane id="81082982#9_0" index="0" disallow="tram rail_urban rail rail_electric ship" speed="13.89" length="28.64" width="3.00" shape="1738.76,2053.81 1747.43,2071.21"/>
        <lane id="81082982#9_1" index="1" disallow="tram rail_urban rail rail_electric ship" speed="13.89" length="28.64" width="3.00" shape="1735.98,2055.19 1744.65,2072.59"/>
    </edge>
    <edge id="a" from="cga+s" to="gneJ33" name="Corso Giovanni Agnelli" priority="5" type="main" spreadType="center" length="65.00" shape="1208.34,1087.67 1238.72,1145.44">
        <lane id="a_0" index="0" allow="tram" speed="13.89" length="65.00" width="3.00" shape="1210.64,1086.46 1240.24,1142.75"/>
        <lane id="a_1" index="1" disallow="tram rail_urban rail rail_electric ship" speed="13.89" length="65.00" width="2.50" shape="1208.12,1087.78 1237.72,1144.08"/>
        <lane id="a_2" index="2" disallow="tram rail_urban rail rail_electric ship" speed="13.89" length="65.00" width="2.50" shape="1205.82,1088.99 1235.42,1145.29"/>
    </edge>
    <edge id="aa" from="gneJ18" to="cga#vsm" name="Corso Giovanni Agnelli" priority="5" type="main" spreadType="center" length="66.00" shape="1409.22,1487.33 1374.20,1420.75">
        <lane id="aa_0" index="0" allow="tram" speed="13.89" length="66.00" width="3.00" shape="1406.15,1487.09 1376.64,1430.98"/>
        <lane id="aa_1" index="1" disallow="tram rail_urban rail rail_electric ship" speed="13.89" length="66.00" width="2.50" shape="1408.67,1485.76 1379.16,1429.65"/>
        <lane id="aa_2" index="2" disallow="tram rail_urban rail rail_electric ship" speed="13.89" length="66.00" width="2.50" shape="1410.98,1484.55 1381.46,1428.44"/>
    </edge>
    <edge id="ab" from="cga#vsm" to="gneJ17" name="Corso Giovanni Agnelli" priority="5" type="main" spreadType="center" length="84.00" shape="1374.20,1420.75 1339.18,1354.18">
        <lane id="ab_0" index="0" allow="tram" speed="13.89" length="84.00" width="3.00" shape="1366.75,1412.18 1337.63,1356.82"/>
        <lane id="ab_1" index="1" disallow="tram rail_urban rail rail_electric ship" speed="13.89" length="84.00" width="2.50" shape="1369.27,1410.85 1340.15,1355.49"/>
        <lane id="ab_2" index="2" disallow="tram rail_urban rail rail_electric ship" speed="13.89" length="84.00" width="2.50" shape="1371.57,1409.64 1342.45,1354.28"/>
    </edge>
    <edge id="ac" from="gneJ17" to="gneJ33" name="Corso Giovanni Agnelli" priority="5" type="main" spreadType="center" length="232.00" shape="1339.32,1354.36 1231.27,1148.97">
        <lane id="ac_0" index="0" allow="tram" speed="13.89" length="232.00" width="3.00" shape="1336.31,1354.12 1229.79,1151.64"/>
        <lane id="ac_1" index="1" disallow="tram rail_urban rail rail_electric ship" speed="13.89" length="232.00" width="5.00" shape="1339.94,1352.21 1233.42,1149.73"/>
    </edge>
    <edge id="ad" from="gneJ33" to="cga+s" name="Corso Giovanni Agnelli" priority="5" type="main" spreadType="center" length="65.00" shape="1231.39,1149.29 1201.00,1091.53">
        <lane id="ad_0" index="0" allow="tram" speed="13.89" length="65.00" width="3.00" shape="1228.31,1149.03 1198.70,1092.74"/>
        <lane id="ad_1" index="1" disallow="tram rail_urban rail rail_electric ship" speed="13.89" length="65.00" width="2.50" shape="1230.83,1147.70 1201.22,1091.42"/>
        <lane id="ad_2" index="2" disallow="tram rail_urban rail rail_electric ship" speed="13.89" length="65.00" width="2.50" shape="1233.13,1146.49 1203.52,1090.20"/>
    </edge>
    <edge id="ae" from="vsm+w" to="cga#vsm1" name="Via San Marino" priority="3" type="secondary" spreadType="center">
        <lane id="ae_0" index="0" disallow="all" speed="13.89" length="231.24" width="2.00" shape="1149.72,1525.86 1354.08,1426.77"/>
        <lane id="ae_1" index="1" disallow="tram rail_urban rail rail_electric ship" speed="13.89" length="231.24" width="6.00" shape="1151.50,1529.55 1355.87,1430.46"/>
        <lane id="ae_2" index="2" disallow="all" speed="13.89" length="231.24" width="4.50" shape="1153.84,1534.36 1358.20,1435.28"/>
    </edge>
    <edge id="af" from="cga#vsm1" to="cga#vsm" name="Via San Marino" priority="4" type="frontage" spreadType="center" length="10.70" shape="1356.49,1426.21 1375.19,1414.48">
        <lane id="af_0" index="0" disallow="tram rail_urban rail rail_electric ship" speed="13.89" length="10.70" width="5.00" shape="1360.22,1420.86 1365.28,1417.68"/>
        <lane id="af_1" index="1" disallow="tram rail_urban rail rail_electric ship" speed="13.89" length="10.70" width="5.00" shape="1362.93,1425.18 1367.96,1422.02"/>
    </edge>
    <edge id="ag" from="vsm+e" to="cga#vsm2" name="Via San Marino" priority="3" type="secondary" spreadType="center" length="405.37" shape="1707.30,1145.50 1397.67,1407.20">
        <lane id="ag_0" index="0" disallow="all" speed="13.89" length="405.37" width="2.00" shape="1708.62,1147.07 1402.78,1405.57"/>
        <lane id="ag_1" index="1" disallow="tram rail_urban rail rail_electric ship" speed="13.89" length="405.37" width="4.00" shape="1706.62,1144.70 1400.77,1403.20"/>
    </edge>
    <edge id="ah" from="cga#vsm2" to="cga#vsm" name="Via San Marino" priority="4" type="frontage" spreadType="center" length="10.70" shape="1399.63,1408.05 1380.13,1423.39">
        <lane id="ah_0" index="0" disallow="tram rail_urban rail rail_electric ship" speed="13.89" length="10.70" width="5.00" shape="1395.71,1414.38 1391.03,1418.06"/>
        <lane id="ah_1" index="1" disallow="tram rail_urban rail rail_electric ship" speed="13.89" length="10.70" width="5.00" shape="1392.55,1410.37 1387.88,1414.05"/>
    </edge>
    <edge id="ai" from="vf+w" to="gneJ8" name="Via Filadelfia" priority="3" type="secondary" spreadType="center" length="225.00" shape="1309.38,1922.46 1509.28,1819.00">
        <lane id="ai_0" index="0" disallow="all" speed="13.89" length="225.00" width="4.50" shape="1308.21,1920.19 1506.58,1817.53"/>
        <lane id="ai_1" index="1" disallow="tram rail_urban rail rail_electric ship" speed="13.89" length="225.00" width="5.00" shape="1310.44,1924.50 1508.81,1821.83"/>
    </edge>
    <edge id="aj" from="gneJ8" to="cga#vf1" name="Via Filadelfia" priority="3" type="secondary" spreadType="center" length="50.00" shape="1509.00,1819.40 1553.78,1796.20">
        <lane id="aj_0" index="0" disallow="all" speed="13.89" length="50.00" width="2.00" shape="1508.86,1815.41 1548.52,1794.87"/>
        <lane id="aj_1" index="1" disallow="tram rail_urban rail rail_electric ship" speed="13.89" length="50.00" width="3.50" shape="1510.17,1817.94 1549.83,1797.40"/>
        <lane id="aj_2" index="2" disallow="tram rail_urban rail rail_electric ship" speed="13.89" length="50.00" width="3.50" shape="1511.83,1821.14 1551.49,1800.60"/>
    </edge>
    <edge id="ak" from="cga#vf1" to="cga#vf" name="Via Filadelfia" priority="4" type="frontage" spreadType="center" length="10.00" shape="1553.54,1797.31 1571.92,1787.72">
        <lane id="ak_0" index="0" disallow="tram rail_urban rail rail_electric ship" speed="13.89" length="10.00" width="3.75" shape="1556.91,1793.38 1562.38,1790.53"/>
        <lane id="ak_1" index="1" disallow="tram rail_urban rail rail_electric ship" speed="13.89" length="10.00" width="3.75" shape="1558.69,1796.79 1564.13,1793.95"/>
    </edge>
    <edge id="al" from="vf+e" to="gneJ9" name="Via Filadelfia" priority="3" type="secondary" spreadType="center" length="386.17" shape="1983.66,1584.66 1639.61,1760.09">
        <lane id="al_0" index="0" disallow="all" speed="13.89" length="386.17" width="2.00" shape="1984.25,1585.82 1640.20,1761.25"/>
        <lane id="al_1" index="1" disallow="tram rail_urban rail rail_electric ship" speed="13.89" length="386.17" width="2.50" shape="1983.18,1583.73 1639.13,1759.15"/>
    </edge>
    <edge id="am" from="gneJ9" to="cga#vf2" name="Via Filadelfia" priority="3" type="secondary" spreadType="center" length="50.00" shape="1639.84,1760.25 1595.17,1783.03">
        <lane id="am_0" index="0" disallow="tram rail_urban rail rail_electric ship" speed="13.89" length="50.00" width="2.50" shape="1640.43,1761.41 1599.38,1782.34"/>
        <lane id="am_1" index="1" disallow="tram rail_urban rail rail_electric ship" speed="13.89" length="50.00" width="2.50" shape="1639.25,1759.09 1598.20,1780.03"/>
    </edge>
    <edge id="an" from="cga#vf2" to="cga#vf" name="Via Filadelfia" priority="4" type="frontage" spreadType="center" length="13.00" shape="1596.04,1783.97 1575.45,1794.56">
        <lane id="an_0" index="0" disallow="tram rail_urban rail rail_electric ship" speed="13.89" length="13.00" width="3.75" shape="1593.00,1787.70 1585.05,1791.79"/>
        <lane id="an_1" index="1" disallow="tram rail_urban rail rail_electric ship" speed="13.89" length="13.00" width="3.75" shape="1591.24,1784.28 1583.29,1788.36"/>
    </edge>
    <edge id="ao" from="cs_w2" to="gneJ11" name="Corso Sebastopoli" priority="3" type="secondary" spreadType="center">
        <lane id="ao_0" index="0" disallow="all" speed="13.89" length="238.50" width="2.00" shape="1424.60,2208.06 1636.70,2099.00"/>
        <lane id="ao_1" index="1" disallow="tram rail_urban rail rail_electric ship" speed="13.89" length="238.50" width="5.00" shape="1426.25,2211.26 1638.35,2102.20"/>
    </edge>
    <edge id="ap" from="gneJ11" to="cga#cs5" name="Corso Sebastopoli" priority="3" type="secondary" spreadType="center">
        <lane id="ap_0" index="0" disallow="tram rail_urban rail rail_electric ship" speed="13.89" length="70.00" width="3.00" shape="1637.16,2099.89 1695.41,2069.95"/>
        <lane id="ap_1" index="1" disallow="tram rail_urban rail rail_electric ship" speed="13.89" length="70.00" width="3.00" shape="1638.58,2102.65 1696.83,2072.71"/>
    </edge>
    <edge id="aq" from="cga#cs5" to="cga#cs2" name="Corso Sebastopoli" priority="4" type="frontage" spreadType="center" length="8.80">
        <lane id="aq_0" index="0" disallow="tram rail_urban rail rail_electric ship" speed="13.89" length="8.80" width="3.00" shape="1703.34,2065.74 1707.03,2063.71"/>
        <lane id="aq_1" index="1" disallow="tram rail_urban rail rail_electric ship" speed="13.89" length="8.80" width="3.00" shape="1704.83,2068.46 1708.52,2066.43"/>
    </edge>
    <edge id="ar" from="cga#vf" to="cga#vf2" name="Via Filadelfia" priority="4" type="frontage" spreadType="center" length="33.00" shape="1571.93,1787.72 1592.53,1777.15">
        <lane id="ar_0" index="0" disallow="tram rail_urban rail rail_electric ship" speed="13.89" length="33.00" width="3.75" shape="1579.78,1781.52 1587.73,1777.45"/>
        <lane id="ar_1" index="1" disallow="tram rail_urban rail rail_electric ship" speed="13.89" length="33.00" width="3.75" shape="1581.54,1784.95 1589.49,1780.87"/>
    </edge>
    <edge id="as" from="cga#vf2" to="gneJ9" name="Via Filadelfia" priority="3" type="secondary" spreadType="center" length="50.00" shape="1592.81,1778.39 1637.48,1755.63">
        <lane id="as_0" index="0" disallow="tram rail_urban rail rail_electric ship" speed="13.89" length="50.00" width="2.50" shape="1595.83,1775.39 1636.89,1754.47"/>
        <lane id="as_1" index="1" disallow="tram rail_urban rail rail_electric ship" speed="13.89" length="50.00" width="2.50" shape="1597.01,1777.71 1638.07,1756.78"/>
    </edge>
    <edge id="at" from="gneJ9" to="vf+e" name="Via Filadelfia" priority="3" type="secondary" spreadType="center" length="386.17" shape="1636.90,1754.79 1980.98,1579.35">
        <lane id="at_0" index="0" disallow="all" speed="13.89" length="386.17" width="4.50" shape="1636.31,1753.63 1980.39,1578.19"/>
        <lane id="at_1" index="1" disallow="tram rail_urban rail rail_electric ship" speed="13.89" length="386.17" width="2.50" shape="1637.94,1756.84 1982.02,1581.40"/>
    </edge>
    <edge id="au" from="cga#vf" to="cga#vf1" name="Via Filadelfia" priority="4" type="frontage" spreadType="center" length="30.00" shape="1575.46,1794.56 1557.01,1804.02">
        <lane id="au_0" index="0" disallow="tram rail_urban rail rail_electric ship" speed="13.89" length="30.00" width="3.75" shape="1567.62,1800.75 1562.20,1803.53"/>
        <lane id="au_1" index="1" disallow="tram rail_urban rail rail_electric ship" speed="13.89" length="30.00" width="3.75" shape="1565.86,1797.32 1560.42,1800.11"/>
    </edge>
    <edge id="av" from="cga#vf1" to="gneJ8" name="Via Filadelfia" priority="3" type="secondary" spreadType="center" length="50.00" shape="1557.34,1803.08 1512.76,1826.15">
        <lane id="av_0" index="0" disallow="all" speed="13.89" length="50.00" width="2.00" shape="1554.68,1806.77 1515.02,1827.29"/>
        <lane id="av_1" index="1" disallow="tram rail_urban rail rail_electric ship" speed="13.89" length="50.00" width="4.00" shape="1553.25,1804.02 1513.59,1824.54"/>
    </edge>
    <edge id="aw" from="gneJ8" to="vf+w" name="Via Filadelfia" priority="3" type="secondary" spreadType="center" length="225.00" shape="1513.16,1826.51 1313.30,1929.94">
        <lane id="aw_0" index="0" disallow="all" speed="13.89" length="225.00" width="2.00" shape="1512.81,1829.56 1314.47,1932.20"/>
        <lane id="aw_1" index="1" disallow="tram rail_urban rail rail_electric ship" speed="13.89" length="225.00" width="5.00" shape="1511.16,1826.36 1312.82,1929.01"/>
    </edge>
    <edge id="b" from="gneJ33" to="gneJ17" name="Corso Giovanni Agnelli" priority="5" type="main" spreadType="center" length="232.00" shape="1238.52,1145.16 1346.58,1350.54">
        <lane id="b_0" index="0" allow="tram" speed="13.89" length="232.00" width="3.00" shape="1241.56,1145.45 1348.09,1347.92"/>
        <lane id="b_1" index="1" disallow="tram rail_urban rail rail_electric ship" speed="13.89" length="232.00" width="5.00" shape="1237.93,1147.36 1344.46,1349.83"/>
    </edge>
    <edge id="c" from="gneJ17" to="cga#vsm" name="Corso Giovanni Agnelli" priority="5" type="main" spreadType="center" length="66.00" shape="1346.51,1350.32 1381.54,1416.89">
        <lane id="c_0" index="0" allow="tram" speed="13.89" length="66.00" width="3.00" shape="1349.56,1350.54 1378.70,1405.90"/>
        <lane id="c_1" index="1" disallow="tram rail_urban rail rail_electric ship" speed="13.89" length="66.00" width="2.50" shape="1347.04,1351.86 1376.17,1407.22"/>
        <lane id="c_2" index="2" disallow="tram rail_urban rail rail_electric ship" speed="13.89" length="66.00" width="2.50" shape="1344.74,1353.07 1373.87,1408.43"/>
    </edge>
    <edge id="cga#cs1_cga#cs3" from="cga#cs1" to="cga#cs3" name="Corso Sebastopoli" priority="4" type="frontage" spreadType="center" length="8.80">
        <lane id="cga#cs1_cga#cs3_0" index="0" disallow="tram rail_urban rail rail_electric ship" speed="13.89" length="8.80" width="3.00" shape="1721.24,2091.02 1717.71,2092.82"/>
        <lane id="cga#cs1_cga#cs3_1" index="1" disallow="tram rail_urban rail rail_electric ship" speed="13.89" length="8.80" width="3.00" shape="1719.83,2088.26 1716.30,2090.06"/>
    </edge>
    <edge id="cga#cs3_cs+w1.0" from="cga#cs3" to="gneJ12" name="Corso Sebastopoli" priority="3" type="secondary" spreadType="center">
        <lane id="cga#cs3_cs+w1.0_0" index="0" disallow="tram rail_urban rail rail_electric ship" speed="13.89" length="70.00" width="5.00" shape="1708.95,2095.59 1652.26,2125.15"/>
    </edge>
    <edge id="cga#cs3_cs+w1.113" from="gneJ12" to="cs+w1" name="Corso Sebastopoli" priority="3" type="secondary" spreadType="center">
        <lane id="cga#cs3_cs+w1.113_0" index="0" disallow="all" speed="13.89" length="238.78" width="2.00" shape="1650.78,2128.79 1440.39,2238.50"/>
        <lane id="cga#cs3_cs+w1.113_1" index="1" disallow="tram rail_urban rail rail_electric ship" speed="13.89" length="238.78" width="5.00" shape="1649.11,2125.60 1438.72,2235.31"/>
    </edge>
    <edge id="d" from="cga#vsm" to="gneJ18" name="Corso Giovanni Agnelli" priority="5" type="main" spreadType="center" length="84.00" shape="1381.54,1416.89 1416.55,1483.47">
        <lane id="d_0" index="0" allow="tram" speed="13.89" length="84.00" width="3.00" shape="1388.59,1424.70 1418.09,1480.81"/>
        <lane id="d_1" index="1" disallow="tram rail_urban rail rail_electric ship" speed="13.89" length="84.00" width="2.50" shape="1386.06,1426.02 1415.57,1482.13"/>
        <lane id="d_2" index="2" disallow="tram rail_urban rail rail_electric ship" speed="13.89" length="84.00" width="2.50" shape="1383.76,1427.23 1413.27,1483.34"/>
    </edge>
    <edge id="e" from="gneJ18" to="gneJ15" name="Corso Giovanni Agnelli" priority="5" type="main" spreadType="center" length="270.68" shape="1416.38,1483.24 1542.44,1722.91">
        <lane id="e_0" index="0" allow="tram" speed="13.89" length="270.68" width="3.00" shape="1419.40,1483.51 1543.97,1720.34"/>
        <lane id="e_1" index="1" disallow="tram rail_urban rail rail_electric ship" speed="13.89" length="270.68" width="5.00" shape="1415.77,1485.42 1540.34,1722.24"/>
    </edge>
    <edge id="f" from="gneJ15" to="gneJ22" name="Corso Giovanni Agnelli" priority="5" type="main" spreadType="center" length="50.00" shape="1542.45,1722.83 1565.85,1767.34">
        <lane id="f_0" index="0" allow="tram" speed="13.89" length="50.00" width="3.00" shape="1545.45,1722.95 1567.13,1764.19"/>
        <lane id="f_1" index="1" disallow="tram rail_urban rail rail_electric ship" speed="13.89" length="50.00" width="2.50" shape="1542.93,1724.28 1564.61,1765.52"/>
        <lane id="f_2" index="2" disallow="tram rail_urban rail rail_electric ship" speed="13.89" length="50.00" width="2.50" shape="1540.63,1725.49 1562.31,1766.73"/>
    </edge>
    <edge id="g" from="gneJ22" to="cga#vf" name="Corso Giovanni Agnelli" priority="5" type="main" spreadType="center" length="16.00" shape="1565.08,1766.17 1577.36,1789.21">
        <lane id="g_0" index="0" allow="tram" speed="13.89" length="16.00" width="3.00" shape="1568.40,1766.87 1575.38,1779.97"/>
        <lane id="g_1" index="1" disallow="tram rail_urban rail rail_electric ship" speed="13.89" length="16.00" width="2.50" shape="1565.88,1768.21 1572.85,1781.28"/>
        <lane id="g_2" index="2" disallow="tram rail_urban rail rail_electric ship" speed="13.89" length="16.00" width="2.50" shape="1563.59,1769.43 1570.55,1782.48"/>
    </edge>
    <edge id="h" from="cga#vf" to="gneJ21" name="Corso Giovanni Agnelli" priority="5" type="main" spreadType="center" length="34.00" shape="1577.36,1789.20 1589.45,1812.34">
        <lane id="h_0" index="0" allow="tram" speed="13.89" length="34.00" width="3.00" shape="1583.94,1796.17 1590.71,1809.13"/>
        <lane id="h_1" index="1" disallow="tram rail_urban rail rail_electric ship" speed="13.89" length="34.00" width="2.50" shape="1581.41,1797.49 1588.20,1810.48"/>
        <lane id="h_2" index="2" disallow="tram rail_urban rail rail_electric ship" speed="13.89" length="34.00" width="2.50" shape="1579.11,1798.69 1585.91,1811.71"/>
    </edge>
    <edge id="i" from="gneJ21" to="gneJ20" name="Corso Giovanni Agnelli" priority="5" type="main" spreadType="center" length="50.00" shape="1588.88,1811.07 1612.43,1855.49">
        <lane id="i_0" index="0" allow="tram" speed="13.89" length="50.00" width="3.00" shape="1592.16,1811.80 1613.96,1852.92"/>
        <lane id="i_1" index="1" disallow="tram rail_urban rail rail_electric ship" speed="13.89" length="50.00" width="5.00" shape="1588.53,1813.72 1610.33,1854.84"/>
    </edge>
    <edge id="j" from="gneJ20" to="gneJ13" name="Corso Giovanni Agnelli" priority="5" type="main" spreadType="center" length="154.68" shape="1612.42,1855.37 1684.90,1992.15">
        <lane id="j_0" index="0" allow="tram" speed="13.89" length="154.68" width="3.00" shape="1615.40,1855.55 1686.45,1989.63"/>
        <lane id="j_1" index="1" disallow="tram rail_urban rail rail_electric ship" speed="13.89" length="154.68" width="5.00" shape="1611.78,1857.47 1682.83,1991.55"/>
    </edge>
    <edge id="k" from="gneJ13" to="cga#cs2" name="Corso Giovanni Agnelli" priority="5" type="main" spreadType="center" length="70.50" shape="1684.90,1992.15 1720.12,2058.62">
        <lane id="k_0" index="0" allow="tram" speed="13.89" length="70.50" width="3.00" shape="1687.90,1992.26 1720.19,2053.20"/>
        <lane id="k_1" index="1" disallow="tram rail_urban rail rail_electric ship" speed="13.89" length="70.50" width="2.50" shape="1685.38,1993.59 1717.67,2054.53"/>
        <lane id="k_2" index="2" disallow="tram rail_urban rail rail_electric ship" speed="13.89" length="70.50" width="2.50" shape="1683.08,1994.81 1715.37,2055.75"/>
    </edge>
    <edge id="l" from="cga#cs2" to="cga#cs1" name="Corso IV Novembre" priority="5" type="main" spreadType="center" length="27.99" shape="1719.71,2057.93 1732.92,2083.30">
        <lane id="l_0" index="0" allow="tram" speed="13.89" length="27.99" width="3.00" shape="1724.48,2061.46 1733.11,2078.03"/>
        <lane id="l_1" index="1" disallow="tram rail_urban rail rail_electric ship" speed="13.89" length="27.99" width="2.50" shape="1721.96,2062.78 1730.58,2079.34"/>
        <lane id="l_2" index="2" disallow="tram rail_urban rail rail_electric ship" speed="13.89" length="27.99" width="2.50" shape="1719.65,2063.98 1728.27,2080.53"/>
    </edge>
    <edge id="m" from="cga#cs1" to="gneJ10" name="Corso Quattro Novembre" priority="5" type="main" spreadType="center" length="79.50" shape="1732.91,2083.28 1767.92,2149.86">
        <lane id="m_0" index="0" allow="tram" speed="13.89" length="79.50" width="3.00" shape="1737.44,2086.31 1769.47,2147.22"/>
        <lane id="m_1" index="1" disallow="tram rail_urban rail rail_electric ship" speed="13.89" length="79.50" width="2.50" shape="1734.92,2087.63 1766.95,2148.55"/>
        <lane id="m_2" index="2" disallow="tram rail_urban rail rail_electric ship" speed="13.89" length="79.50" width="2.50" shape="1732.62,2088.84 1764.65,2149.76"/>
    </edge>
    <edge id="n" from="gneJ10" to="gneJ32" name="Corso Quattro Novembre" priority="5" type="main" spreadType="center" length="430.00" shape="1767.78,2149.68 1967.95,2530.30">
        <lane id="n_0" index="0" allow="tram" speed="13.89" length="430.00" width="3.00" shape="1770.79,2149.92 1969.44,2527.65"/>
        <lane id="n_1" index="1" disallow="tram rail_urban rail rail_electric ship" speed="13.89" length="430.00" width="5.00" shape="1767.16,2151.83 1965.81,2529.56"/>
    </edge>
    <edge id="o" from="gneJ32" to="cga+n" name="Corso Quattro Novembre" priority="5" type="main" spreadType="center" length="65.00" shape="1967.85,2530.01 1998.23,2587.77">
        <lane id="o_0" index="0" allow="tram" speed="13.89" length="65.00" width="3.00" shape="1970.92,2530.26 2000.53,2586.56"/>
        <lane id="o_1" index="1" disallow="tram rail_urban rail rail_electric ship" speed="13.89" length="65.00" width="2.50" shape="1968.40,2531.58 1998.01,2587.88"/>
        <lane id="o_2" index="2" disallow="tram rail_urban rail rail_electric ship" speed="13.89" length="65.00" width="2.50" shape="1966.09,2532.80 1995.71,2589.10"/>
    </edge>
    <edge id="p" from="cga+n" to="gneJ32" name="Corso Quattro Novembre" priority="5" type="main" spreadType="center" length="65.00" shape="1990.89,2591.63 1960.51,2533.87">