<?xml version="1.0" encoding="UTF-8"?>
<routes 
    xmlns:xsi="http://www.w3.org/2001/XMLSchema-instance" xsi:noNamespaceSchemaLocation="http://sumo.dlr.de/xsd/routes_file.xsd">
    <vTypeDistribution id="vtypedist">
        <!-- normc(mean, dev, min, max) -->
        <!-- You can configure the penetration rate of VIL here -->
        <vType id="car" accel="2.2" decel="7.5" sigma="0.5" tau="1.0" length="5" minGap="1.5" maxSpeed="33.33" guiShape="passenger" speedFactor="normc(1,0.1,0.6,1.5)" probability="0" color="white"/>
        <vType id="carVIL" accel="2.2" decel="7.5" sigma="0.5" tau="1.0" length="5" minGap="1.5" maxSpeed="33.33" guiShape="passenger" speedFactor="normc(1,0.1,0.6,1.5)" probability="1" color="blue"/>
    </vTypeDistribution>
    <!-- Towards north -->
    <route id="cga+s2cga+n" edges="a b c d e f g h i j k l m n o" />
    <route id="vsm+w2cga+n" edges="ae af d e f g h i j k l m n o" />
    <route id="vsm+e2cga+n" edges="ag ah d e f g h i j k l m n o" />
    <route id="vf+w2cga+n" edges="ai aj ak h i j k l m n o" />
    <route id="vf+e2cga+n" edges="al am an h i j k l m n o" />
    <!-- Towards south -->
    <route id="cga+n2cga+s" edges="p q r s t u v w x y z aa ab ac ad" />
    <route id="cs+w22cga+s" edges="ao ap aq t u v w x y z aa ab ac ad" />
    <route id="vf+w2cga+s" edges="ai aj ak x y z aa ab ac ad" />
    <route id="vf+e2cga+s" edges="al am an x y z aa ab ac ad" />
    <!-- Towards east -->
    <route id="vf+w2vf+e" edges="ai aj ak ar as at" />
    <!-- Towards west -->
    <route id="vf+e2vf+w" edges="al am an au av aw" />
    <!-- Flows -->
    <!-- flowDist D -->
    <!-- Towards south
    70.0000	15.0000	7.5000	7.5000
    Towards north
    60.0000	15.0000	15.0000	5.0000	5.0000
    Towards east/west (dummy)
    15.0000 -->
    
	<flow id="2sa1" begin="0" end="300" vehsPerHour="96.6" type="vtypedist" route="cga+n2cga+s" departLane="best" departSpeed="random"/>	<flow id="2sb1" begin="0" end="300" vehsPerHour="20.7" type="vtypedist" route="cs+w22cga+s" departLane="best" departSpeed="random"/>	<flow id="2sc1" begin="0" end="300" vehsPerHour="10.35" type="vtypedist" route="vf+w2cga+s" departLane="best" departSpeed="random"/>	<flow id="2sd1" begin="0" end="300" vehsPerHour="10.35" type="vtypedist" route="vf+e2cga+s" departLane="best" departSpeed="random"/>			
<flow id="2na1" begin="0" end="300" vehsPerHour="118.8" type="vtypedist" route="cga+s2cga+n" departLane="best" departSpeed="random"/>	<flow id="2nb1" begin="0" end="300" vehsPerHour="29.7" type="vtypedist" route="vsm+w2cga+n" departLane="best" departSpeed="random"/>	<flow id="2nc1" begin="0" end="300" vehsPerHour="29.7" type="vtypedist" route="vsm+e2cga+n" departLane="best" departSpeed="random"/>	<flow id="2nd1" begin="0" end="300" vehsPerHour="9.9" type="vtypedist" route="vf+w2cga+n" departLane="best" departSpeed="random"/>	<flow id="2ne1" begin="0" end="300" vehsPerHour="9.9" type="vtypedist" route="vf+e2cga+n" departLane="best" departSpeed="random"/>	<flow id="2nf1" begin="0" end="300" vehsPerHour="29.7" type="vtypedist" route="vf+e2vf+w" departLane="best" departSpeed="random"/>	<flow id="2ng1" begin="0" end="300" vehsPerHour="29.7" type="vtypedist" route="vf+w2vf+e" departLane="best" departSpeed="random"/>
<flow id="2sa2" begin="300" end="600" vehsPerHour="58.8" type="vtypedist" route="cga+n2cga+s" departLane="best" departSpeed="random"/>	<flow id="2sb2" begin="300" end="600" vehsPerHour="12.6" type="vtypedist" route="cs+w22cga+s" departLane="best" departSpeed="random"/>	<flow id="2sc2" begin="300" end="600" vehsPerHour="6.3" type="vtypedist" route="vf+w2cga+s" departLane="best" departSpeed="random"/>	<flow id="2sd2" begin="300" end="600" vehsPerHour="6.3" type="vtypedist" route="vf+e2cga+s" departLane="best" departSpeed="random"/>			
<flow id="2na2" begin="300" end="600" vehsPerHour="86.4" type="vtypedist" route="cga+s2cga+n" departLane="best" departSpeed="random"/>	<flow id="2nb2" begin="300" end="600" vehsPerHour="21.6" type="vtypedist" route="vsm+w2cga+n" departLane="best" departSpeed="random"/>	<flow id="2nc2" begin="300" end="600" vehsPerHour="21.6" type="vtypedist" route="vsm+e2cga+n" departLane="best" departSpeed="random"/>	<flow id="2nd2" begin="300" end="600" vehsPerHour="7.2" type="vtypedist" route="vf+w2cga+n" departLane="best" departSpeed="random"/>	<flow id="2ne2" begin="300" end="600" vehsPerHour="7.2" type="vtypedist" route="vf+e2cga+n" departLane="best" departSpeed="random"/>	<flow id="2nf2" begin="300" end="600" vehsPerHour="21.6" type="vtypedist" route="vf+e2vf+w" departLane="best" departSpeed="random"/>	<flow id="2ng2" begin="300" end="600" vehsPerHour="21.6" type="vtypedist" route="vf+w2vf+e" departLane="best" departSpeed="random"/>
<flow id="2sa3" begin="600" end="900" vehsPerHour="134.4" type="vtypedist" route="cga+n2cga+s" departLane="best" departSpeed="random"/>	<flow id="2sb3" begin="600" end="900" vehsPerHour="28.8" type="vtypedist" route="cs+w22cga+s" departLane="best" departSpeed="random"/>	<flow id="2sc3" begin="600" end="900" vehsPerHour="14.4" type="vtypedist" route="vf+w2cga+s" departLane="best" departSpeed="random"/>	<flow id="2sd3" begin="600" end="900" vehsPerHour="14.4" type="vtypedist" route="vf+e2cga+s" departLane="best" departSpeed="random"/>			
<flow id="2na3" begin="600" end="900" vehsPerHour="151.2" type="vtypedist" route="cga+s2cga+n" departLane="best" departSpeed="random"/>	<flow id="2nb3" begin="600" end="900" vehsPerHour="37.8" type="vtypedist" route="vsm+w2cga+n" departLane="best" departSpeed="random"/>	<flow id="2nc3" begin="600" end="900" vehsPerHour="37.8" type="vtypedist" route="vsm+e2cga+n" departLane="best" departSpeed="random"/>	<flow id="2nd3" begin="600" end="900" vehsPerHour="12.6" type="vtypedist" route="vf+w2cga+n" departLane="best" departSpeed="random"/>	<flow id="2ne3" begin="600" end="900" vehsPerHour="12.6" type="vtypedist" route="vf+e2cga+n" departLane="best" departSpeed="random"/>	<flow id="2nf3" begin="600" end="900" vehsPerHour="37.8" type="vtypedist" route="vf+e2vf+w" departLane="best" departSpeed="random"/>	<flow id="2ng3" begin="600" end="900" vehsPerHour="37.8" type="vtypedist" route="vf+w2vf+e" departLane="best" departSpeed="random"/>
<flow id="2sa4" begin="900" end="1200" vehsPerHour="126" type="vtypedist" route="cga+n2cga+s" departLane="best" departSpeed="random"/>	<flow id="2sb4" begin="900" end="1200" vehsPerHour="27" type="vtypedist" route="cs+w22cga+s" departLane="best" departSpeed="random"/>	<flow id="2sc4" begin="900" end="1200" vehsPerHour="13.5" type="vtypedist" route="vf+w2cga+s" departLane="best" departSpeed="random"/>	<flow id="2sd4" begin="900" end="1200" vehsPerHour="13.5" type="vtypedist" route="vf+e2cga+s" departLane="best" departSpeed="random"/>			
<flow id="2na4" begin="900" end="1200" vehsPerHour="93.6" type="vtypedist" route="cga+s2cga+n" departLane="best" departSpeed="random"/>	<flow id="2nb4" begin="900" end="1200" vehsPerHour="23.4" type="vtypedist" route="vsm+w2cga+n" departLane="best" departSpeed="random"/>	<flow id="2nc4" begin="900" end="1200" vehsPerHour="23.4" type="vtypedist" route="vsm+e2cga+n" departLane="best" departSpeed="random"/>	<flow id="2nd4" begin="900" end="1200" vehsPerHour="7.8" type="vtypedist" route="vf+w2cga+n" departLane="best" departSpeed="random"/>	<flow id="2ne4" begin="900" end="1200" vehsPerHour="7.8" type="vtypedist" route="vf+e2cga+n" departLane="best" departSpeed="random"/>	<flow id="2nf4" begin="900" end="1200" vehsPerHour="23.4" type="vtypedist" route="vf+e2vf+w" departLane="best" departSpeed="random"/>	<flow id="2ng4" begin="900" end="1200" vehsPerHour="23.4" type="vtypedist" route="vf+w2vf+e" departLane="best" departSpeed="random"/>
<flow id="2sa5" begin="1200" end="1500" vehsPerHour="84" type="vtypedist" route="cga+n2cga+s" departLane="best" departSpeed="random"/>	<flow id="2sb5" begin="1200" end="1500" vehsPerHour="18" type="vtypedist" route="cs+w22cga+s" departLane="best" departSpeed="random"/>	<flow id="2sc5" begin="1200" end="1500" vehsPerHour="9" type="vtypedist" route="vf+w2cga+s" departLane="best" departSpeed="random"/>	<flow id="2sd5" begin="1200" end="1500" vehsPerHour="9" type="vtypedist" route="vf+e2cga+s" departLane="best" departSpeed="random"/>			
<flow id="2na5" begin="1200" end="1500" vehsPerHour="108" type="vtypedist" route="cga+s2cga+n" departLane="best" departSpeed="random"/>	<flow id="2nb5" begin="1200" end="1500" vehsPerHour="27" type="vtypedist" route="vsm+w2cga+n" departLane="best" departSpeed="random"/>	<flow id="2nc5" begin="1200" end="1500" vehsPerHour="27" type="vtypedist" route="vsm+e2cga+n" departLane="best" departSpeed="random"/>	<flow id="2nd5" begin="1200" end="1500" vehsPerHour="9" type="vtypedist" route="vf+w2cga+n" departLane="best" departSpeed="random"/>	<flow id="2ne5" begin="1200" end="1500" vehsPerHour="9" type="vtypedist" route="vf+e2cga+n" departLane="best" departSpeed="random"/>	<flow id="2nf5" begin="1200" end="1500" vehsPerHour="27" type="vtypedist" route="vf+e2vf+w" departLane="best" departSpeed="random"/>	<flow id="2ng5" begin="1200" end="1500" vehsPerHour="27" type="vtypedist" route="vf+w2vf+e" departLane="best" departSpeed="random"/>
<flow id="2sa6" begin="1500" end="1800" vehsPerHour="75.6" type="vtypedist" route="cga+n2cga+s" departLane="best" departSpeed="random"/>	<flow id="2sb6" begin="1500" end="1800" vehsPerHour="16.2" type="vtypedist" route="cs+w22cga+s" departLane="best" departSpeed="random"/>	<flow id="2sc6" begin="1500" end="1800" vehsPerHour="8.1" type="vtypedist" route="vf+w2cga+s" departLane="best" departSpeed="random"/>	<flow id="2sd6" begin="1500" end="1800" vehsPerHour="8.1" type="vtypedist" route="vf+e2cga+s" departLane="best" departSpeed="random"/>			
<flow id="2na6" begin="1500" end="1800" vehsPerHour="64.8" type="vtypedist" route="cga+s2cga+n" departLane="best" departSpeed="random"/>	<flow id="2nb6" begin="1500" end="1800" vehsPerHour="16.2" type="vtypedist" route="vsm+w2cga+n" departLane="best" departSpeed="random"/>	<flow id="2nc6" begin="1500" end="1800" vehsPerHour="16.2" type="vtypedist" route="vsm+e2cga+n" departLane="best" departSpeed="random"/>	<flow id="2nd6" begin="1500" end="1800" vehsPerHour="5.4" type="vtypedist" route="vf+w2cga+n" departLane="best" departSpeed="random"/>	<flow id="2ne6" begin="1500" end="1800" vehsPerHour="5.4" type="vtypedist" route="vf+e2cga+n" departLane="best" departSpeed="random"/>	<flow id="2nf6" begin="1500" end="1800" vehsPerHour="16.2" type="vtypedist" route="vf+e2vf+w" departLane="best" departSpeed="random"/>	<flow id="2ng6" begin="1500" end="1800" vehsPerHour="16.2" type="vtypedist" route="vf+w2vf+e" departLane="best" departSpeed="random"/>
<flow id="2sa7" begin="1800" end="2100" vehsPerHour="75.6" type="vtypedist" route="cga+n2cga+s" departLane="best" departSpeed="random"/>	<flow id="2sb7" begin="1800" end="2100" vehsPerHour="16.2" type="vtypedist" route="cs+w22cga+s" departLane="best" departSpeed="random"/>	<flow id="2sc7" begin="1800" end="2100" vehsPerHour="8.1" type="vtypedist" route="vf+w2cga+s" departLane="best" departSpeed="random"/>	<flow id="2sd7" begin="1800" end="2100" vehsPerHour="8.1" type="vtypedist" route="vf+e2cga+s" departLane="best" departSpeed="random"/>			
<flow id="2na7" begin="1800" end="2100" vehsPerHour="64.8" type="vtypedist" route="cga+s2cga+n" departLane="best" departSpeed="random"/>	<flow id="2nb7" begin="1800" end="2100" vehsPerHour="16.2" type="vtypedist" route="vsm+w2cga+n" departLane="best" departSpeed="random"/>	<flow id="2nc7" begin="1800" end="2100" vehsPerHour="16.2" type="vtypedist" route="vsm+e2cga+n" departLane="best" departSpeed="random"/>	<flow id="2nd7" begin="1800" end="2100" vehsPerHour="5.4" type="vtypedist" route="vf+w2cga+n" departLane="best" departSpeed="random"/>	<flow id="2ne7" begin="1800" end="2100" vehsPerHour="5.4" type="vtypedist" route="vf+e2cga+n" departLane="best" departSpeed="random"/>	<flow id="2nf7" begin="1800" end="2100" vehsPerHour="16.2" type="vtypedist" route="vf+e2vf+w" departLane="best" departSpeed="random"/>	<flow id="2ng7" begin="1800" end="2100" vehsPerHour="16.2" type="vtypedist" route="vf+w2vf+e" departLane="best" departSpeed="random"/>
<flow id="2sa8" begin="2100" end="2400" vehsPerHour="58.8" type="vtypedist" route="cga+n2cga+s" departLane="best" departSpeed="random"/>	<flow id="2sb8" begin="2100" end="2400" vehsPerHour="12.6" type="vtypedist" route="cs+w22cga+s" departLane="best" departSpeed="random"/>	<flow id="2sc8" begin="2100" end="2400" vehsPerHour="6.3" type="vtypedist" route="vf+w2cga+s" departLane="best" departSpeed="random"/>	<flow id="2sd8" begin="2100" end="2400" vehsPerHour="6.3" type="vtypedist" route="vf+e2cga+s" departLane="best" departSpeed="random"/>			
<flow id="2na8" begin="2100" end="2400" vehsPerHour="86.4" type="vtypedist" route="cga+s2cga+n" departLane="best" departSpeed="random"/>	<flow id="2nb8" begin="2100" end="2400" vehsPerHour="21.6" type="vtypedist" route="vsm+w2cga+n" departLane="best" departSpeed="random"/>	<flow id="2nc8" begin="2100" end="2400" vehsPerHour="21.6" type="vtypedist" route="vsm+e2cga+n" departLane="best" departSpeed="random"/>	<flow id="2nd8" begin="2100" end="2400" vehsPerHour="7.2" type="vtypedist" route="vf+w2cga+n" departLane="best" departSpeed="random"/>	<flow id="2ne8" begin="2100" end="2400" vehsPerHour="7.2" type="vtypedist" route="vf+e2cga+n" departLane="best" departSpeed="random"/>	<flow id="2nf8" begin="2100" end="2400" vehsPerHour="21.6" type="vtypedist" route="vf+e2vf+w" departLane="best" departSpeed="random"/>	<flow id="2ng8" begin="2100" end="2400" vehsPerHour="21.6" type="vtypedist" route="vf+w2vf+e" departLane="best" departSpeed="random"/>
<flow id="2sa9" begin="2400" end="2700" vehsPerHour="75.6" type="vtypedist" route="cga+n2cga+s" departLane="best" departSpeed="random"/>	<flow id="2sb9" begin="2400" end="2700" vehsPerHour="16.2" type="vtypedist" route="cs+w22cga+s" departLane="best" departSpeed="random"/>	<flow id="2sc9" begin="2400" end="2700" vehsPerHour="8.1" type="vtypedist" route="vf+w2cga+s" departLane="best" departSpeed="random"/>	<flow id="2sd9" begin="2400" end="2700" vehsPerHour="8.1" type="vtypedist" route="vf+e2cga+s" departLane="best" departSpeed="random"/>			
<flow id="2na9" begin="2400" end="2700" vehsPerHour="36" type="vtypedist" route="cga+s2cga+n" departLane="best" departSpeed="random"/>	<flow id="2nb9" begin="2400" end="2700" vehsPerHour="9" type="vtypedist" route="vsm+w2cga+n" departLane="best" departSpeed="random"/>	<flow id="2nc9" begin="2400" end="2700" vehsPerHour="9" type="vtypedist" route="vsm+e2cga+n" departLane="best" departSpeed="random"/>	<flow id="2nd9" begin="2400" end="2700" vehsPerHour="3" type="vtypedist" route="vf+w2cga+n" departLane="best" departSpeed="random"/>	<flow id="2ne9" begin="2400" end="2700" vehsPerHour="3" type="vtypedist" route="vf+e2cga+n" departLane="best" departSpeed="random"/>	<flow id="2nf9" begin="2400" end="2700" vehsPerHour="9" type="vtypedist" route="vf+e2vf+w" departLane="best" departSpeed="random"/>	<flow id="2ng9" begin="2400" end="2700" vehsPerHour="9" type="vtypedist" route="vf+w2vf+e" departLane="best" departSpeed="random"/>
<flow id="2sa10" begin="2700" end="3000" vehsPerHour="142.8" type="vtypedist" route="cga+n2cga+s" departLane="best" departSpeed="random"/>	<flow id="2sb10" begin="2700" end="3000" vehsPerHour="30.6" type="vtypedist" route="cs+w22cga+s" departLane="best" departSpeed="random"/>	<flow id="2sc10" begin="2700" end="3000" vehsPerHour="15.3" type="vtypedist" route="vf+w2cga+s" departLane="best" departSpeed="random"/>	<flow id="2sd10" begin="2700" end="3000" vehsPerHour="15.3" type="vtypedist" route="vf+e2cga+s" departLane="best" departSpeed="random"/>			
<flow id="2na10" begin="2700" end="3000" vehsPerHour="43.2" type="vtypedist" route="cga+s2cga+n" departLane="best" departSpeed="random"/>	<flow id="2nb10" begin="2700" end="3000" vehsPerHour="10.8" type="vtypedist" route="vsm+w2cga+n" departLane="best" departSpeed="random"/>	<flow id="2nc10" begin="2700" end="3000" vehsPerHour="10.8" type="vtypedist" route="vsm+e2cga+n" departLane="best" departSpeed="random"/>	<flow id="2nd10" begin="2700" end="3000" vehsPerHour="3.6" type="vtypedist" route="vf+w2cga+n" departLane="best" departSpeed="random"/>	<flow id="2ne10" begin="2700" end="3000" vehsPerHour="3.6" type="vtypedist" route="vf+e2cga+n" departLane="best" departSpeed="random"/>	<flow id="2nf10" begin="2700" end="3000" vehsPerHour="10.8" type="vtypedist" route="vf+e2vf+w" departLane="best" departSpeed="random"/>	<flow id="2ng10" begin="2700" end="3000" vehsPerHour="10.8" type="vtypedist" route="vf+w2vf+e" departLane="best" departSpeed="random"/>
<flow id="2sa11" begin="3000" end="3300" vehsPerHour="92.4" type="vtypedist" route="cga+n2cga+s" departLane="best" departSpeed="random"/>	<flow id="2sb11" begin="3000" end="3300" vehsPerHour="19.8" type="vtypedist" route="cs+w22cga+s" departLane="best" departSpeed="random"/>	<flow id="2sc11" begin="3000" end="3300" vehsPerHour="9.9" type="vtypedist" route="vf+w2cga+s" departLane="best" departSpeed="random"/>	<flow id="2sd11" begin="3000" end="3300" vehsPerHour="9.9" type="vtypedist" route="vf+e2cga+s" departLane="best" departSpeed="random"/>			
<flow id="2na11" begin="3000" end="3300" vehsPerHour="43.2" type="vtypedist" route="cga+s2cga+n" departLane="best" departSpeed="random"/>	<flow id="2nb11" begin="3000" end="3300" vehsPerHour="10.8" type="vtypedist" route="vsm+w2cga+n" departLane="best" departSpeed="random"/>	<flow id="2nc11" begin="3000" end="3300" vehsPerHour="10.8" type="vtypedist" route="vsm+e2cga+n" departLane="best" departSpeed="random"/>	<flow id="2nd11" begin="3000" end="3300" vehsPerHour="3.6" type="vtypedist" route="vf+w2cga+n" departLane="best" departSpeed="random"/>	<flow id="2ne11" begin="3000" end="3300" vehsPerHour="3.6" type="vtypedist" route="vf+e2cga+n" departLane="best" departSpeed="random"/>	<flow id="2nf11" begin="3000" end="3300" vehsPerHour="10.8" type="vtypedist" route="vf+e2vf+w" departLane="best" departSpeed="random"/>	<flow id="2ng11" begin="3000" end="3300" vehsPerHour="10.8" type="vtypedist" route="vf+w2vf+e" departLane="best" departSpeed="random"/>
<flow id="2sa12" begin="3300" end="3600" vehsPerHour="58.8" type="vtypedist" route="cga+n2cga+s" departLane="best" departSpeed="random"/>	<flow id="2sb12" begin="3300" end="3600" vehsPerHour="12.6" type="vtypedist" route="cs+w22cga+s" departLane="best" departSpeed="random"/>	<flow id="2sc12" begin="3300" end="3600" vehsPerHour="6.3" type="vtypedist" route="vf+w2cga+s" departLane="best" departSpeed="random"/>	<flow id="2sd12" begin="3300" end="3600" vehsPerHour="6.3" type="vtypedist" route="vf+e2cga+s" departLane="best" departSpeed="random"/>			
<flow id="2na12" begin="3300" end="3600" vehsPerHour="57.6" type="vtypedist" route="cga+s2cga+n" departLane="best" departSpeed="random"/>	<flow id="2nb12" begin="3300" end="3600" vehsPerHour="14.4" type="vtypedist" route="vsm+w2cga+n" departLane="best" departSpeed="random"/>	<flow id="2nc12" begin="3300" end="3600" vehsPerHour="14.4" type="vtypedist" route="vsm+e2cga+n" departLane="best" departSpeed="random"/>	<flow id="2nd12" begin="3300" end="3600" vehsPerHour="4.8" type="vtypedist" route="vf+w2cga+n" departLane="best" departSpeed="random"/>	<flow id="2ne12" begin="3300" end="3600" vehsPerHour="4.8" type="vtypedist" route="vf+e2cga+n" departLane="best" departSpeed="random"/>	<flow id="2nf12" begin="3300" end="3600" vehsPerHour="14.4" type="vtypedist" route="vf+e2vf+w" departLane="best" departSpeed="random"/>	<flow id="2ng12" begin="3300" end="3600" vehsPerHour="14.4" type="vtypedist" route="vf+w2vf+e" departLane="best" departSpeed="random"/>
<flow id="2sa13" begin="3600" end="3900" vehsPerHour="92.4" type="vtypedist" route="cga+n2cga+s" departLane="best" departSpeed="random"/>	<flow id="2sb13" begin="3600" end="3900" vehsPerHour="19.8" type="vtypedist" route="cs+w22cga+s" departLane="best" departSpeed="random"/>	<flow id="2sc13" begin="3600" end="3900" vehsPerHour="9.9" type="vtypedist" route="vf+w2cga+s" departLane="best" departSpeed="random"/>	<flow id="2sd13" begin="3600" end="3900" vehsPerHour="9.9" type="vtypedist" route="vf+e2cga+s" departLane="best" departSpeed="random"/>			
<flow id="2na13" begin="3600" end="3900" vehsPerHour="43.2" type="vtypedist" route="cga+s2cga+n" departLane="best" departSpeed="random"/>	<flow id="2nb13" begin="3600" end="3900" vehsPerHour="10.8" type="vtypedist" route="vsm+w2cga+n" departLane="best" departSpeed="random"/>	<flow id="2nc13" begin="3600" end="3900" vehsPerHour="10.8" type="vtypedist" route="vsm+e2cga+n" departLane="best" departSpeed="random"/>	<flow id="2nd13" begin="3600" end="3900" vehsPerHour="3.6" type="vtypedist" route="vf+w2cga+n" departLane="best" departSpeed="random"/>	<flow id="2ne13" begin="3600" end="3900" vehsPerHour="3.6" type="vtypedist" route="vf+e2cga+n" departLane="best" departSpeed="random"/>	<flow id="2nf13" begin="3600" end="3900" vehsPerHour="10.8" type="vtypedist" route="vf+e2vf+w" departLane="best" departSpeed="random"/>	<flow id="2ng13" begin="3600" end="3900" vehsPerHour="10.8" type="vtypedist" route="vf+w2vf+e" departLane="best" departSpeed="random"/>
<flow id="2sa14" begin="3900" end="4200" vehsPerHour="58.8" type="vtypedist" route="cga+n2cga+s" departLane="best" departSpeed="random"/>	<flow id="2sb14" begin="3900" end="4200" vehsPerHour="12.6" type="vtypedist" route="cs+w22cga+s" departLane="best" departSpeed="random"/>	<flow id="2sc14" begin="3900" end="4200" vehsPerHour="6.3" type="vtypedist" route="vf+w2cga+s" departLane="best" departSpeed="random"/>	<flow id="2sd14" begin="3900" end="4200" vehsPerHour="6.3" type="vtypedist" route="vf+e2cga+s" departLane="best" departSpeed="random"/>			
<flow id="2na14" begin="3900" end="4200" vehsPerHour="64.8" type="vtypedist" route="cga+s2cga+n" departLane="best" departSpeed="random"/>	<flow id="2nb14" begin="3900" end="4200" vehsPerHour="16.2" type="vtypedist" route="vsm+w2cga+n" departLane="best" departSpeed="random"/>	<flow id="2nc14" begin="3900" end="4200" vehsPerHour="16.2" type="vtypedist" route="vsm+e2cga+n" departLane="best" departSpeed="random"/>	<flow id="2nd14" begin="3900" end="4200" vehsPerHour="5.4" type="vtypedist" route="vf+w2cga+n" departLane="best" departSpeed="random"/>	<flow id="2ne14" begin="3900" end="4200" vehsPerHour="5.4" type="vtypedist" route="vf+e2cga+n" departLane="best" departSpeed="random"/>	<flow id="2nf14" begin="3900" end="4200" vehsPerHour="16.2" type="vtypedist" route="vf+e2vf+w" departLane="best" departSpeed="random"/>	<flow id="2ng14" begin="3900" end="4200" vehsPerHour="16.2" type="vtypedist" route="vf+w2vf+e" departLane="best" departSpeed="random"/>
<flow id="2sa15" begin="4200" end="4500" vehsPerHour="50.4" type="vtypedist" route="cga+n2cga+s" departLane="best" departSpeed="random"/>	<flow id="2sb15" begin="4200" end="4500" vehsPerHour="10.8" type="vtypedist" route="cs+w22cga+s" departLane="best" departSpeed="random"/>	<flow id="2sc15" begin="4200" end="4500" vehsPerHour="5.4" type="vtypedist" route="vf+w2cga+s" departLane="best" departSpeed="random"/>	<flow id="2sd15" begin="4200" end="4500" vehsPerHour="5.4" type="vtypedist" route="vf+e2cga+s" departLane="best" departSpeed="random"/>			
<flow id="2na15" begin="4200" end="4500" vehsPerHour="64.8" type="vtypedist" route="cga+s2cga+n" departLane="best" departSpeed="random"/>	<flow id="2nb15" begin="4200" end="4500" vehsPerHour="16.2" type="vtypedist" route="vsm+w2cga+n" departLane="best" departSpeed="random"/>	<flow id="2nc15" begin="4200" end="4500" vehsPerHour="16.2" type="vtypedist" route="vsm+e2cga+n" departLane="best" departSpeed="random"/>	<flow id="2nd15" begin="4200" end="4500" vehsPerHour="5.4" type="vtypedist" route="vf+w2cga+n" departLane="best" departSpeed="random"/>	<flow id="2ne15" begin="4200" end="4500" vehsPerHour="5.4" type="vtypedist" route="vf+e2cga+n" departLane="best" departSpeed="random"/>	<flow id="2nf15" begin="4200" end="4500" vehsPerHour="16.2" type="vtypedist" route="vf+e2vf+w" departLane="best" departSpeed="random"/>	<flow id="2ng15" begin="4200" end="4500" vehsPerHour="16.2" type="vtypedist" route="vf+w2vf+e" departLane="best" departSpeed="random"/>
<flow id="2sa16" begin="4500" end="4800" vehsPerHour="33.6" type="vtypedist" route="cga+n2cga+s" departLane="best" departSpeed="random"/>	<flow id="2sb16" begin="4500" end="4800" vehsPerHour="7.2" type="vtypedist" route="cs+w22cga+s" departLane="best" departSpeed="random"/>	<flow id="2sc16" begin="4500" end="4800" vehsPerHour="3.6" type="vtypedist" route="vf+w2cga+s" departLane="best" departSpeed="random"/>	<flow id="2sd16" begin="4500" end="4800" vehsPerHour="3.6" type="vtypedist" route="vf+e2cga+s" departLane="best" departSpeed="random"/>			
<flow id="2na16" begin="4500" end="4800" vehsPerHour="28.8" type="vtypedist" route="cga+s2cga+n" departLane="best" departSpeed="random"/>	<flow id="2nb16" begin="4500" end="4800" vehsPerHour="7.2" type="vtypedist" route="vsm+w2cga+n" departLane="best" departSpeed="random"/>	<flow id="2nc16" begin="4500" end="4800" vehsPerHour="7.2" type="vtypedist" route="vsm+e2cga+n" departLane="best" departSpeed="random"/>	<flow id="2nd16" begin="4500" end="4800" vehsPerHour="2.4" type="vtypedist" route="vf+w2cga+n" departLane="best" departSpeed="random"/>	<flow id="2ne16" begin="4500" end="4800" vehsPerHour="2.4" type="vtypedist" route="vf+e2cga+n" departLane="best" departSpeed="random"/>	<flow id="2nf16" begin="4500" end="4800" vehsPerHour="7.2" type="vtypedist" route="vf+e2vf+w" departLane="best" departSpeed="random"/>	<flow id="2ng16" begin="4500" end="4800" vehsPerHour="7.2" type="vtypedist" route="vf+w2vf+e" departLane="best" departSpeed="random"/>
<flow id="2sa17" begin="4800" end="5100" vehsPerHour="25.2" type="vtypedist" route="cga+n2cga+s" departLane="best" departSpeed="random"/>	<flow id="2sb17" begin="4800" end="5100" vehsPerHour="5.4" type="vtypedist" route="cs+w22cga+s" departLane="best" departSpeed="random"/>	<flow id="2sc17" begin="4800" end="5100" vehsPerHour="2.7" type="vtypedist" route="vf+w2cga+s" departLane="best" departSpeed="random"/>	<flow id="2sd17" begin="4800" end="5100" vehsPerHour="2.7" type="vtypedist" route="vf+e2cga+s" departLane="best" departSpeed="random"/>			
<flow id="2na17" begin="4800" end="5100" vehsPerHour="21.6" type="vtypedist" route="cga+s2cga+n" departLane="best" departSpeed="random"/>	<flow id="2nb17" begin="4800" end="5100" vehsPerHour="5.4" type="vtypedist" route="vsm+w2cga+n" departLane="best" departSpeed="random"/>	<flow id="2nc17" begin="4800" end="5100" vehsPerHour="5.4" type="vtypedist" route="vsm+e2cga+n" departLane="best" departSpeed="random"/>	<flow id="2nd17" begin="4800" end="5100" vehsPerHour="1.8" type="vtypedist" route="vf+w2cga+n" departLane="best" departSpeed="random"/>	<flow id="2ne17" begin="4800" end="5100" vehsPerHour="1.8" type="vtypedist" route="vf+e2cga+n" departLane="best" departSpeed="random"/>	<flow id="2nf17" begin="4800" end="5100" vehsPerHour="5.4" type="vtypedist" route="vf+e2vf+w" departLane="best" departSpeed="random"/>	<flow id="2ng17" begin="4800" end="5100" vehsPerHour="5.4" type="vtypedist" route="vf+w2vf+e" departLane="best" departSpeed="random"/>
<flow id="2sa18" begin="5100" end="5400" vehsPerHour="42" type="vtypedist" route="cga+n2cga+s" departLane="best" departSpeed="random"/>	<flow id="2sb18" begin="5100" end="5400" vehsPerHour="9" type="vtypedist" route="cs+w22cga+s" departLane="best" departSpeed="random"/>	<flow id="2sc18" begin="5100" end="5400" vehsPerHour="4.5" type="vtypedist" route="vf+w2cga+s" departLane="best" departSpeed="random"/>	<flow id="2sd18" begin="5100" end="5400" vehsPerHour="4.5" type="vtypedist" route="vf+e2cga+s" departLane="best" departSpeed="random"/>			
<flow id="2na18" begin="5100" end="5400" vehsPerHour="36" type="vtypedist" route="cga+s2cga+n" departLane="best" departSpeed="random"/>	<flow id="2nb18" begin="5100" end="5400" vehsPerHour="9" type="vtypedist" route="vsm+w2cga+n" departLane="best" departSpeed="random"/>	<flow id="2nc18" begin="5100" end="5400" vehsPerHour="9" type="vtypedist" route="vsm+e2cga+n" departLane="best" departSpeed="random"/>	<flow id="2nd18" begin="5100" end="5400" vehsPerHour="3" type="vtypedist" route="vf+w2cga+n" departLane="best" departSpeed="random"/>	<flow id="2ne18" begin="5100" end="5400" vehsPerHour="3" type="vtypedist" route="vf+e2cga+n" departLane="best" departSpeed="random"/>	<flow id="2nf18" begin="5100" end="5400" vehsPerHour="9" type="vtypedist" route="vf+e2vf+w" departLane="best" departSpeed="random"/>	<flow id="2ng18" begin="5100" end="5400" vehsPerHour="9" type="vtypedist" route="vf+w2vf+e" departLane="best" departSpeed="random"/>
<flow id="2sa19" begin="5400" end="5700" vehsPerHour="25.2" type="vtypedist" route="cga+n2cga+s" departLane="best" departSpeed="random"/>	<flow id="2sb19" begin="5400" end="5700" vehsPerHour="5.4" type="vtypedist" route="cs+w22cga+s" departLane="best" departSpeed="random"/>	<flow id="2sc19" begin="5400" end="5700" vehsPerHour="2.7" type="vtypedist" route="vf+w2cga+s" departLane="best" departSpeed="random"/>	<flow id="2sd19" begin="5400" end="5700" vehsPerHour="2.7" type="vtypedist" route="vf+e2cga+s" departLane="best" departSpeed="random"/>			